tests/fuzzer/corpus_json/21_random_009.json
{
  "version": "1.0",
  "type": "input",
  "is_batch": false,
  "attributes": {},
  "data": {
    "node": [
      {
        "id": 0,
        "u_rated": 380000.0
      },
      {
        "id": 1,
        "u_rated": 380000.0
      },
      {
        "id": 2,
        "u_rated": 380000.0
      },
      {
        "id": 3,
        "u_rated": 380000.0
      },
      {
        "id": 4,
        "u_rated": 380000.0
      },
      {
        "id": 5,
        "u_rated": 380000.0
      },
      {
        "id": 6,
        "u_rated": 380000.0
      },
      {
        "id": 7,
        "u_rated": 380000.0
      },
      {
        "id": 8,
        "u_rated": 380000.0
      }
    ],
    "source": [
      {
        "id": 9,
        "node": 0,
        "status": 1,
        "u_ref": 0.927707882502891,
        "u_ref_angle": 0.0,
        "sk": 373374600.2019025,
        "rx_ratio": 0.43328092499317067,
        "z01_ratio": 1.0
      },
      {
        "id": 10,
        "node": 8,
        "status": 1,
        "u_ref": 1.0,
        "u_ref_angle": 0.0,
        "sk": 502831801.8442032,
        "rx_ratio": 0.1,
        "z01_ratio": 1.0
      }
    ],
    "line": [
      {
        "id": 11,
        "from_node": 0,
        "to_node": 1,
        "from_status": 1,
        "to_status": 1,
        "r1": 4.491489850159691,
        "x1": 0.4040732359150051,
        "c1": 5.542704681782861e-07,
        "tan1": 0.0,
        "r0": 0.3,
        "x0": 0.3,
        "c0": 1e-09,
        "tan0": 0.0,
        "i_n": 620.4835422567822
      },
      {
        "id": 12,
        "from_node": 1,
        "to_node": 2,
        "from_status": 1,
        "to_status": 1,
        "r1": 0.20447882742405776,
        "x1": 1.8950980219771785,
        "c1": 7.03480392293747e-07,
        "tan1": 0.0,
        "r0": 0.3,
        "x0": 0.3,
        "c0": 1e-09,
        "tan0": 0.0,
        "i_n": 457.50071124552545
      },
      {
        "id": 13,
        "from_node": 2,
        "to_node": 3,
        "from_status": 1,
        "to_status": 1,
        "r1": 3.6253268429110452,
        "x1": 0.7857858079831292,
        "c1": 2.3801220246653274e-07,
        "tan1": 0.0,
        "r0": 0.3,
        "x0": 0.3,
        "c0": 1e-09,
        "tan0": 0.0,
        "i_n": 119.8380526982345
      },
      {
        "id": 14,
        "from_node": 3,
        "to_node": 4,
        "from_status": 1,
        "to_status": 1,
        "r1": 2.5313452583449116,
        "x1": 4.619148932061478,
        "c1": 5.904284571359125e-07,
        "tan1": 0.0,
        "r0": 0.3,
        "x0": 0.3,
        "c0": 1e-09,
        "tan0": 0.0,
        "i_n": 776.467372563156
      },
      {
        "id": 15,
        "from_node": 4,
        "to_node": 5,
        "from_status": 1,
        "to_status": 1,
        "r1": 1.918324224263241,
        "x1": 3.730476084622143,
        "c1": 1.0166943757947843e-07,
        "tan1": 0.0,
        "r0": 0.3,
        "x0": 0.3,
        "c0": 1e-09,
        "tan0": 0.0,
        "i_n": 298.26629819654306
      },
      {
        "id": 16,
        "from_node": 5,
        "to_node": 6,
        "from_status": 1,
        "to_status": 1,
        "r1": 3.371180006276856,
        "x1": 3.628531761206524,
        "c1": 4.21755395006955e-07,
        "tan1": 0.0,
        "r0": 0.3,
        "x0": 0.3,
        "c0": 1e-09,
        "tan0": 0.0,
        "i_n": 96.8352592353108
      },
      {
        "id": 17,
        "from_node": 6,
        "to_node": 7,
        "from_status": 1,
        "to_status": 1,
        "r1": 1.3336678561337023,
        "x1": 1.0494506506824086,
        "c1": 2.811844150845688e-07,
        "tan1": 0.0,
        "r0": 0.3,
        "x0": 0.3,
        "c0": 1e-09,
        "tan0": 0.0,
        "i_n": 811.415593719205
      },
      {
        "id": 18,
        "from_node": 7,
        "to_node": 8,
        "from_status": 1,
        "to_status": 1,
        "r1": 0.9974161054492264,
        "x1": 4.431998655396387,
        "c1": 8.793731884001768e-07,
        "tan1": 0.0,
        "r0": 0.3,
        "x0": 0.3,
        "c0": 1e-09,
        "tan0": 0.0,
        "i_n": 64.24146254997386
      }
    ],
    "sym_load": [
      {
        "id": 19,
        "node": 1,
        "status": 1,
        "type": 1,
        "p_specified": -72171.43621521718,
        "q_specified": -5265.333738218942
      },
      {
        "id": 20,
        "node": 5,
        "status": 1,
        "type": 2,
        "p_specified": -60465.93055828893,
        "q_specified": 7043.927640177786
      },
      {
        "id": 21,
        "node": 6,
        "status": 1,
        "type": 0,
        "p_specified": -73363.3212152579,
        "q_specified": 8353.149297455671
      },
      {
        "id": 22,
        "node": 7,
        "status": 1,
        "type": 2,
        "p_specified": -651.6701913064317,
        "q_specified": 8418.526380982315
      },
      {
        "id": 23,
        "node": 8,
        "status": 1,
        "type": 1,
        "p_specified": -61567.10142088304,
        "q_specified": 5297.95409640935
      }
    ]
  }
}